OPT_V6/network_debug.txt
Pandapower Network Debug Info
==================================================

BUS:
          name  vn_kv type  zone  in_service
0       Bus 17    0.4    b  None        True
1       Bus 18    0.4    b  None        True
2       Bus 19    0.4    b  None        True
3       Bus 20    0.4    b  None        True
4       Bus 21    0.4    b  None        True
5       Bus 22    0.4    b  None        True
6       Bus 23    0.4    b  None        True
7       Bus 24    0.4    b  None        True
8       Bus 25    0.4    b  None        True
9       Bus 26    0.4    b  None        True
10      Bus 27    0.4    b  None        True
11      Bus 28    0.4    b  None        True
12      Bus 29    0.4    b  None        True
13      Bus 30    0.4    b  None        True
14      Bus 31    0.4    b  None        True
15      Bus 32    0.4    b  None        True
16      Bus 33    0.4    b  None        True
17      Bus 34    0.4    b  None        True
18      Bus 35    0.4    b  None        True
19      Bus 36    0.4    b  None        True
20      Bus 37    0.4    b  None        True
21      Bus 38    0.4    b  None        True
22      Bus 39    0.4    b  None        True
23      Bus 40    0.4    b  None        True
24      Bus 41    0.4    b  None        True
25      Bus 42    0.4    b  None        True
26      Bus 43   15.0    b  None        True
27      Bus 44   15.0    b  None        True
28      Bus 45   15.0    b  None        True
29      Bus 46   15.0    b  None        True
30      Bus 47   15.0    b  None        True
31      Bus 48   15.0    b  None        True
32      Bus 49   15.0    b  None        True
33      Bus 50   15.0    b  None        True
34      Bus 51   15.0    b  None        True
35    Sub MV 2   15.0    b  None        True
36    Sub LV 2    0.4    b  None        True
37    Sub MV 3   15.0    b  None        True
38    Sub LV 3    0.4    b  None        True
39    Sub MV 5   15.0    b  None        True
40    Sub LV 5    0.4    b  None        True
41    Sub MV 6   15.0    b  None        True
42    Sub LV 6    0.4    b  None        True
43    Sub MV 7   15.0    b  None        True
44    Sub LV 7    0.4    b  None        True
45  Slack HV 0   70.0    b  None        True
46  Slack MV 0   15.0    b  None        True
47  Slack HV 1   70.0    b  None        True
48  Slack MV 1   15.0    b  None        True
--------------------------------------------------

LOAD:
          name  bus    p_mw  q_mvar  const_z_percent  const_i_percent  sn_mva  scaling  in_service type
0   Load 17 T0    0  0.0010   0.001              0.0              0.0     NaN      1.0        True  wye
1   Load 18 T0    1  0.0015   0.002              0.0              0.0     NaN      1.0        True  wye
2   Load 19 T0    2  0.0020   0.003              0.0              0.0     NaN      1.0        True  wye
3   Load 20 T0    3  0.0025   0.004              0.0              0.0     NaN      1.0        True  wye
4   Load 21 T0    4  0.0012   0.001              0.0              0.0     NaN      1.0        True  wye
5   Load 22 T0    5  0.0018   0.002              0.0              0.0     NaN      1.0        True  wye
6   Load 23 T0    6  0.0022   0.003              0.0              0.0     NaN      1.0        True  wye
7   Load 24 T0    7  0.0026   0.004              0.0              0.0     NaN      1.0        True  wye
8   Load 25 T0    8  0.0030   0.005              0.0              0.0     NaN      1.0        True  wye
9   Load 26 T0    9  0.0035   0.006              0.0              0.0     NaN      1.0        True  wye
10  Load 27 T0   10  0.0012   0.001              0.0              0.0     NaN      1.0        True  wye
11  Load 28 T0   11  0.0018   0.002              0.0              0.0     NaN      1.0        True  wye
12  Load 29 T0   12  0.0022   0.003              0.0              0.0     NaN      1.0        True  wye
13  Load 30 T0   13  0.0028   0.004              0.0              0.0     NaN      1.0        True  wye
14  Load 31 T0   14  0.0026   0.004              0.0              0.0     NaN      1.0        True  wye
15  Load 32 T0   15  0.0030   0.005              0.0              0.0     NaN      1.0        True  wye
16  Load 33 T0   16  0.0032   0.005              0.0              0.0     NaN      1.0        True  wye
17  Load 34 T0   17  0.0038   0.006              0.0              0.0     NaN      1.0        True  wye
18  Load 35 T0   18  0.0014   0.002              0.0              0.0     NaN      1.0        True  wye
19  Load 36 T0   19  0.0016   0.003              0.0              0.0     NaN      1.0        True  wye
20  Load 37 T0   20  0.0020   0.004              0.0              0.0     NaN      1.0        True  wye
21  Load 38 T0   21  0.0024   0.005              0.0              0.0     NaN      1.0        True  wye
22  Load 39 T0   22  0.0028   0.006              0.0              0.0     NaN      1.0        True  wye
23  Load 40 T0   23  0.0032   0.007              0.0              0.0     NaN      1.0        True  wye
24  Load 41 T0   24  0.0034   0.006              0.0              0.0     NaN      1.0        True  wye
25  Load 42 T0   25  0.0036   0.007              0.0              0.0     NaN      1.0        True  wye
26  Load 43 T0   26  0.0100   0.010              0.0              0.0     NaN      1.0        True  wye
27  Load 44 T0   27  0.0110   0.009              0.0              0.0     NaN      1.0        True  wye
28  Load 45 T0   28  0.0120   0.011              0.0              0.0     NaN      1.0        True  wye
29  Load 46 T0   29  0.0100   0.006              0.0              0.0     NaN      1.0        True  wye
30  Load 47 T0   30  0.0120   0.010              0.0              0.0     NaN      1.0        True  wye
31  Load 48 T0   31  0.0130   0.012              0.0              0.0     NaN      1.0        True  wye
32  Load 49 T0   32  0.0120   0.011              0.0              0.0     NaN      1.0        True  wye
33  Load 50 T0   33  0.0110   0.007              0.0              0.0     NaN      1.0        True  wye
34  Load 51 T0   34  0.0110   0.007              0.0              0.0     NaN      1.0        True  wye
--------------------------------------------------

EXT_GRID:
        name  bus  vm_pu  va_degree  slack_weight  in_service
0  ExtGrid 0   45    1.0        0.0           1.0        True
1  ExtGrid 1   47    1.0        0.0           1.0        True
--------------------------------------------------

LINE:
       name std_type  from_bus  to_bus  length_km  r_ohm_per_km  x_ohm_per_km  c_nf_per_km  g_us_per_km  max_i_ka   df  parallel  type  in_service
0    Line 0     None        46      35   0.400000        0.5502         0.429          0.0          0.0      0.23  1.0         1  None        True
1    Line 9     None        48      39   1.100000        0.5502         0.429          0.0          0.0      0.23  1.0         1  None        True
2   Line 11     None        48      43   0.509902        0.5502         0.429          0.0          0.0      0.23  1.0         1  None        True
3   Line 12     None        35      26   0.223607        0.5502         0.429          0.0          0.0      0.23  1.0         1  None        True
4   Line 21     None        39      29   0.141421        0.5502         0.429          0.0          0.0      0.23  1.0         1  None        True
5   Line 22     None        39      30   0.282843        0.5502         0.429          0.0          0.0      0.23  1.0         1  None        True
6   Line 23     None        39      31   0.223607        0.5502         0.429          0.0          0.0      0.23  1.0         1  None        True
7   Line 27     None        43      32   0.223607        0.5502         0.429          0.0          0.0      0.23  1.0         1  None        True
8   Line 30     None        36       0   0.136015        0.5502         0.429          0.0          0.0      0.23  1.0         1  None        True
9   Line 31     None        36       1   0.250799        0.5502         0.429          0.0          0.0      0.23  1.0         1  None        True
10  Line 33     None        36       3   0.240000        0.5502         0.429          0.0          0.0      0.23  1.0         1  None        True
11  Line 34     None        36       4   0.361248        0.5502         0.429          0.0          0.0      0.23  1.0         1  None        True
12  Line 36     None        36       6   0.500000        0.5502         0.429          0.0          0.0      0.23  1.0         1  None        True
13  Line 40     None        38       2   0.480104        0.5502         0.429          0.0          0.0      0.23  1.0         1  None        True
14  Line 42     None        38       4   0.347131        0.5502         0.429          0.0          0.0      0.23  1.0         1  None        True
15  Line 43     None        38       5   0.230868        0.5502         0.429          0.0          0.0      0.23  1.0         1  None        True
16  Line 45     None        38       7   0.270185        0.5502         0.429          0.0          0.0      0.23  1.0         1  None        True
17  Line 54     None        40       8   0.403113        0.5502         0.429          0.0          0.0      0.23  1.0         1  None        True
18  Line 55     None        40       9   0.225610        0.5502         0.429          0.0          0.0      0.23  1.0         1  None        True
19  Line 56     None        40      10   0.349857        0.5502         0.429          0.0          0.0      0.23  1.0         1  None        True
20  Line 57     None        40      11   0.196469        0.5502         0.429          0.0          0.0      0.23  1.0         1  None        True
21  Line 58     None        40      12   0.050000        0.5502         0.429          0.0          0.0      0.23  1.0         1  None        True
22  Line 59     None        40      13   0.286356        0.5502         0.429          0.0          0.0      0.23  1.0         1  None        True
23  Line 60     None        40      14   0.356090        0.5502         0.429          0.0          0.0      0.23  1.0         1  None        True
24  Line 61     None        40      15   0.282843        0.5502         0.429          0.0          0.0      0.23  1.0         1  None        True
25  Line 66     None        42      20   0.340000        0.5502         0.429          0.0          0.0      0.23  1.0         1  None        True
26  Line 70     None        42      24   0.150333        0.5502         0.429          0.0          0.0      0.23  1.0         1  None        True
27  Line 71     None        42      25   0.226274        0.5502         0.429          0.0          0.0      0.23  1.0         1  None        True
28  Line 72     None        44      16   0.390512        0.5502         0.429          0.0          0.0      0.23  1.0         1  None        True
29  Line 73     None        44      17   0.240832        0.5502         0.429          0.0          0.0      0.23  1.0         1  None        True
30  Line 74     None        44      18   0.072801        0.5502         0.429          0.0          0.0      0.23  1.0         1  None        True
31  Line 75     None        44      19   0.080000        0.5502         0.429          0.0          0.0      0.23  1.0         1  None        True
32  Line 77     None        44      21   0.291548        0.5502         0.429          0.0          0.0      0.23  1.0         1  None        True
33  Line 78     None        44      22   0.180278        0.5502         0.429          0.0          0.0      0.23  1.0         1  None        True
34  Line 79     None        44      23   0.183576        0.5502         0.429          0.0          0.0      0.23  1.0         1  None        True
35  Line 81     None        44      25   0.416173        0.5502         0.429          0.0          0.0      0.23  1.0         1  None        True
36  Line 82     None        27      26   0.223607        0.5502         0.429          0.0          0.0      0.23  1.0         1  None        True
37  Line 88     None        33      32   0.223607        0.5502         0.429          0.0          0.0      0.23  1.0         1  None        True
38  Line 89     None        34      32   0.282843        0.5502         0.429          0.0          0.0      0.23  1.0         1  None        True
39  Line 93     None        28      27   0.200000        0.5502         0.429          0.0          0.0      0.23  1.0         1  None        True
--------------------------------------------------

TRAFO:
                  name std_type  hv_bus  lv_bus  sn_mva  vn_hv_kv  vn_lv_kv  vk_percent  vkr_percent  pfe_kw  i0_percent  shift_degree tap_side  tap_neutral  tap_min  tap_max  tap_step_percent  tap_step_degree  tap_pos  tap_phase_shifter  parallel   df  in_service
0  MV/LV Transformer 2     None      35      36    10.0      15.0       0.4        0.01         0.01    0.01        0.01           0.0     None          NaN      NaN      NaN               NaN              NaN      NaN              False         1  1.0        True
1  MV/LV Transformer 3     None      37      38    10.0      15.0       0.4        0.01         0.01    0.01        0.01           0.0     None          NaN      NaN      NaN               NaN              NaN      NaN              False         1  1.0        True
2  MV/LV Transformer 5     None      39      40    10.0      15.0       0.4        0.01         0.01    0.01        0.01           0.0     None          NaN      NaN      NaN               NaN              NaN      NaN              False         1  1.0        True
3  MV/LV Transformer 6     None      41      42    10.0      15.0       0.4        0.01         0.01    0.01        0.01           0.0     None          NaN      NaN      NaN               NaN              NaN      NaN              False         1  1.0        True
4  MV/LV Transformer 7     None      43      44    10.0      15.0       0.4        0.01         0.01    0.01        0.01           0.0     None          NaN      NaN      NaN               NaN              NaN      NaN              False         1  1.0        True
5  Slack Transformer 0     None      45      46    40.0      70.0      15.0        0.01         0.01    0.01        0.01           0.0     None          NaN      NaN      NaN               NaN              NaN      NaN              False         1  1.0        True
6  Slack Transformer 1     None      47      48    40.0      70.0      15.0        0.01         0.01    0.01        0.01           0.0     None          NaN      NaN      NaN               NaN              NaN      NaN              False         1  1.0        True
--------------------------------------------------

BUS_GEODATA:
        x      y
0    11.0   48.0
1    25.0   38.0
2    51.0   42.0
3     0.0   64.0
4    24.0   67.0
5    52.0   67.0
6     0.0   90.0
7    23.0   91.0
8   129.0  138.0
9   105.0   88.0
10  130.0   92.0
11   81.0  115.0
12  103.0  114.0
13  128.0  116.0
14   78.0  138.0
15  104.0  138.0
16  111.0   12.0
17  126.0   12.0
18  143.0    8.0
19  158.0   10.0
20  110.0   26.0
21  125.0   25.0
22  144.0   27.0
23  159.0   26.0
24  111.0   45.0
25  126.0   44.0
26   10.0   60.0
27   20.0   80.0
28   40.0   80.0
29   90.0  120.0
30  120.0  130.0
31  120.0  100.0
32  130.0   20.0
33  120.0   40.0
34  150.0   40.0
35    0.0   40.0
36    0.5   39.5
37   50.0   90.0
38   50.5   89.5
39  100.0  110.0
40  100.5  109.5
41  110.0   60.0
42  110.5   59.5
43  150.0   10.0
44  150.5    9.5
45    0.0    0.0
46    0.5   -0.5
47  100.0    0.0
48  100.5   -0.5
--------------------------------------------------

RES_BUS:
       vm_pu  va_degree      p_mw    q_mvar
0   0.999079   0.006750  0.001000  0.001000
1   0.997266   0.041991  0.001500  0.002000
2   0.953741   0.870448  0.002000  0.003000
3   0.995252   0.098282  0.002500  0.004000
4   0.978948   0.363743  0.001200  0.001000
5   0.958473   0.751262  0.001800  0.002000
6   0.992043   0.128419  0.002200  0.003000
7   0.955694   0.836125  0.002600  0.004000
8   0.990061   0.216024  0.003000  0.005000
9   0.993336   0.148923  0.003500  0.006000
10  0.997339   0.006957  0.001200  0.001000
11  0.997451   0.025665  0.001800  0.002000
12  0.998945   0.015181  0.002200  0.003000
13  0.993861   0.105673  0.002800  0.004000
14  0.992669   0.141974  0.002600  0.004000
15  0.992966   0.151882  0.003000  0.005000
16  0.990213   0.196861  0.003200  0.005000
17  0.992769   0.147377  0.003800  0.006000
18  0.999103   0.015239  0.001400  0.002000
19  0.998760   0.029856  0.001600  0.003000
20  0.947461   1.432080  0.002000  0.004000
21  0.993484   0.183122  0.002400  0.005000
22  0.995184   0.138443  0.002800  0.006000
23  0.994344   0.166087  0.003200  0.007000
24  0.949381   1.360708  0.003400  0.006000
25  0.965220   0.927086  0.003600  0.007000
26  0.999882   0.000962  0.010000  0.010000
27  0.999861   0.001027  0.011000  0.009000
28  0.999851   0.001073  0.012000  0.011000
29  0.999722   0.002455  0.010000  0.006000
30  0.999713   0.002517  0.012000  0.010000
31  0.999715   0.002550  0.013000  0.012000
32  0.999816   0.002118  0.012000  0.011000
33  0.999807   0.002068  0.011000  0.007000
34  0.999805   0.002055  0.011000  0.007000
35  0.999913   0.000828  0.000000  0.000000
36  0.999913   0.000841  0.000000  0.000000
37  0.961255   0.721812  0.000000  0.000000
38  0.961255   0.721812  0.000000  0.000000
39  0.999727   0.002491  0.000000  0.000000
40  0.999727   0.002509  0.000000  0.000000
41  0.953782   1.251162  0.000000  0.000000
42  0.953782   1.251162  0.000000  0.000000
43  0.999845   0.002165  0.000000  0.000000
44  0.999845   0.002195  0.000000  0.000000
45  1.000000   0.000000 -0.048360 -0.056338
46  1.000000   0.000008  0.000000  0.000000
47  1.000000   0.000000 -0.117756 -0.141858
48  1.000000   0.000020  0.000000  0.000000
--------------------------------------------------

RES_LINE:
    p_from_mw  q_from_mvar   p_to_mw  q_to_mvar         pl_mw       ql_mvar  i_from_ka   i_to_ka      i_ka  vm_from_pu  va_from_degree  vm_to_pu  va_to_degree  loading_percent
0    0.048350     0.052338 -0.048345  -0.052334  4.965920e-06  3.872010e-06   0.002743  0.002743  0.002743    1.000000        0.000008  0.999913      0.000828         1.192398
1    0.055310     0.059155 -0.055292  -0.059142  1.764158e-05  1.375543e-05   0.003117  0.003117  0.003117    1.000000        0.000020  0.999727      0.002491         1.355263
2    0.062436     0.078703 -0.062424  -0.078693  1.258402e-05  9.811964e-06   0.003867  0.003867  0.003867    1.000000        0.000020  0.999845      0.002165         1.681193
3    0.033002     0.030001 -0.033001  -0.030000  1.087868e-06  8.482286e-07   0.001717  0.001717  0.001717    0.999913        0.000828  0.999882      0.000962         0.746443
4    0.010000     0.006000 -0.010000  -0.006000  4.705802e-08  3.669191e-08   0.000449  0.000449  0.000449    0.999727        0.002491  0.999722      0.002455         0.195214
5    0.012000     0.010000 -0.012000  -0.010000  1.688582e-07  1.316615e-07   0.000601  0.000601  0.000601    0.999727        0.002491  0.999713      0.002517         0.261481
6    0.013000     0.012000 -0.013000  -0.012000  1.712440e-07  1.335217e-07   0.000681  0.000681  0.000681    0.999727        0.002491  0.999715      0.002550         0.296153
7    0.034001     0.025001 -0.034000  -0.025000  9.742092e-07  7.596070e-07   0.001625  0.001625  0.001625    0.999845        0.002165  0.999816      0.002118         0.706374
8    0.001001     0.001001 -0.001000  -0.001000  9.371660e-07  7.307237e-07   0.002043  0.002043  0.002043    0.999913        0.000841  0.999079      0.006750         0.888314
9    0.001505     0.002004 -0.001500  -0.002000  5.419803e-06  4.225910e-06   0.003618  0.003618  0.003618    0.999913        0.000841  0.997266      0.041991         1.573187
10   0.002519     0.004014 -0.002500  -0.004000  1.853856e-05  1.445482e-05   0.006841  0.006841  0.006841    0.999913        0.000841  0.995252      0.098282         2.974292
11   0.008084     0.011294 -0.007844  -0.011107  2.396883e-04  1.868889e-04   0.020049  0.020049  0.020049    0.999913        0.000841  0.978948      0.363743         8.717100
12   0.002224     0.003019 -0.002200  -0.003000  2.417941e-05  1.885309e-05   0.005413  0.005413  0.005413    0.999913        0.000841  0.992043      0.128419         2.353364
13   0.002024     0.003018 -0.002000  -0.003000  2.359493e-05  1.839736e-05   0.005457  0.005457  0.005457    0.961255        0.721812  0.953741      0.870448         2.372427
14  -0.006462    -0.009965  0.006644   0.010107  1.822402e-04  1.420957e-04   0.017834  0.017834  0.017834    0.961255        0.721812  0.978948      0.363743         7.754014
15   0.001806     0.002005 -0.001800  -0.002000  6.256673e-06  4.878431e-06   0.004052  0.004052  0.004052    0.961255        0.721812  0.958473      0.751262         1.761737
16   0.002623     0.004018 -0.002600  -0.004000  2.315245e-05  1.805235e-05   0.007205  0.007205  0.007205    0.961255        0.721812  0.955694      0.836125         3.132701
17   0.003048     0.005037 -0.003000  -0.005000  4.808199e-05  3.749032e-05   0.008501  0.008501  0.008501    0.999727        0.002509  0.990061      0.216024         3.695976
18   0.003538     0.006030 -0.003500  -0.006000  3.793713e-05  2.958021e-05   0.010093  0.010093  0.010093    0.999727        0.002509  0.993336      0.148923         4.388378
19   0.001203     0.001002 -0.001200  -0.001000  2.951181e-06  2.301085e-06   0.002261  0.002261  0.002261    0.999727        0.002509  0.997339      0.006957         0.982888
20   0.001805     0.002004 -0.001800  -0.002000  4.916427e-06  3.833419e-06   0.003894  0.003894  0.003894    0.999727        0.002509  0.997451      0.025665         1.692892
21   0.002202     0.003002 -0.002200  -0.003000  2.384642e-06  1.859345e-06   0.005375  0.005375  0.005375    0.999727        0.002509  0.998945      0.015181         2.337103
22   0.002824     0.004019 -0.002800  -0.004000  2.376637e-05  1.853103e-05   0.007091  0.007091  0.007091    0.999727        0.002509  0.993861      0.105673         3.083040
23   0.002628     0.004022 -0.002600  -0.004000  2.828286e-05  2.205261e-05   0.006937  0.006937  0.006937    0.999727        0.002509  0.992669      0.141974         3.016012
24   0.003034     0.005026 -0.003000  -0.005000  3.353944e-05  2.615125e-05   0.008476  0.008476  0.008476    0.999727        0.002509  0.992966      0.151882         3.685162
25   0.002026     0.004020 -0.002000  -0.004000  2.604877e-05  2.031066e-05   0.006813  0.006813  0.006813    0.953782        1.251162  0.947461      1.432080         2.962139
26   0.003427     0.006021 -0.003400  -0.006000  2.727817e-05  2.126924e-05   0.010485  0.010485  0.010485    0.953782        1.251162  0.949381      1.360708         4.558602
27  -0.005462    -0.010951  0.005591   0.011051  1.281018e-04  9.988309e-05   0.018520  0.018520  0.018520    0.953782        1.251162  0.965220      0.927086         8.052141
28   0.003248     0.005038 -0.003200  -0.005000  4.826303e-05  3.763148e-05   0.008653  0.008653  0.008653    0.999845        0.002195  0.990213      0.196861         3.762193
29   0.003842     0.006033 -0.003800  -0.006000  4.238313e-05  3.304682e-05   0.010326  0.010326  0.010326    0.999845        0.002195  0.992769      0.147377         4.489425
30   0.001401     0.002001 -0.001400  -0.002000  1.494734e-06  1.165469e-06   0.003527  0.003527  0.003527    0.999845        0.002195  0.999103      0.015239         1.533431
31   0.001603     0.003002 -0.001600  -0.003000  3.188058e-06  2.485781e-06   0.004914  0.004914  0.004914    0.999845        0.002195  0.998760      0.029856         2.136335
32   0.002431     0.005024 -0.002400  -0.005000  3.124458e-05  2.436191e-05   0.008058  0.008058  0.008058    0.999845        0.002195  0.993484      0.183122         3.503353
33   0.002827     0.006021 -0.002800  -0.006000  2.744140e-05  2.139651e-05   0.009603  0.009603  0.009603    0.999845        0.002195  0.995184      0.138443         4.175260
34   0.003238     0.007029 -0.003200  -0.007000  3.782309e-05  2.949129e-05   0.011172  0.011172  0.011172    0.999845        0.002195  0.994344      0.166087         4.857606
35   0.009821     0.018543 -0.009191  -0.018051  6.302789e-04  4.914388e-04   0.030291  0.030291  0.030291    0.999845        0.002195  0.965220      0.927086        13.169845
36  -0.023000    -0.020000  0.023001   0.020000  5.081178e-07  3.961878e-07   0.001173  0.001173  0.001173    0.999861        0.001027  0.999882      0.000962         0.510142
37  -0.011000    -0.007000  0.011000   0.007000  9.299071e-08  7.250639e-08   0.000502  0.000502  0.000502    0.999807        0.002068  0.999816      0.002118         0.218237
38  -0.011000    -0.007000  0.011000   0.007000  1.176255e-07  9.171457e-08   0.000502  0.000502  0.000502    0.999805        0.002055  0.999816      0.002118         0.218238
39  -0.012000    -0.011000  0.012000   0.011000  1.296414e-07  1.010835e-07   0.000627  0.000627  0.000627    0.999851        0.001073  0.999861      0.001027         0.272463
--------------------------------------------------

RES_TRAFO:
        p_hv_mw     q_hv_mvar   p_lv_mw  q_lv_mvar     pl_mw   ql_mvar       i_hv_ka   i_lv_ka  vm_hv_pu  va_hv_degree  vm_lv_pu  va_lv_degree  loading_percent
0  1.534325e-02  2.233232e-02 -0.015333  -0.021333  0.000010  0.001000  1.042984e-03  0.037923  0.999913      0.000828  0.999913      0.000841         0.270975
1 -2.202718e-14  1.748374e-12  0.000009   0.000924  0.000009  0.000924  7.001293e-14  0.001387  0.961255      0.721812  0.961255      0.721812         0.009613
2  2.029187e-02  3.114120e-02 -0.020282  -0.030142  0.000010  0.000999  1.431026e-03  0.052452  0.999727      0.002491  0.999727      0.002509         0.371792
3 -1.231173e-13  5.637144e-12  0.000009   0.000910  0.000009  0.000910  2.275420e-13  0.001377  0.953782      1.251162  0.953782      1.251162         0.009538
4  2.842268e-02  5.369178e-02 -0.028413  -0.052692  0.000010  0.001000  2.338660e-03  0.086420  0.999845      0.002165  0.999845      0.002195         0.607602
5  4.835996e-02  5.633752e-02 -0.048350  -0.052338  0.000010  0.004000  6.123781e-04  0.002743  1.000000      0.000000  1.000000      0.000008         0.185617
6  1.177564e-01  1.418578e-01 -0.117746  -0.137858  0.000010  0.004000  1.520611e-03  0.006978  1.000000      0.000000  1.000000      0.000020         0.460911
--------------------------------------------------

RES_EXT_GRID:
       p_mw    q_mvar
0  0.048360  0.056338
1  0.117756  0.141858
--------------------------------------------------

RES_LOAD:
      p_mw  q_mvar
0   0.0010   0.001
1   0.0015   0.002
2   0.0020   0.003
3   0.0025   0.004
4   0.0012   0.001
5   0.0018   0.002
6   0.0022   0.003
7   0.0026   0.004
8   0.0030   0.005
9   0.0035   0.006
10  0.0012   0.001
11  0.0018   0.002
12  0.0022   0.003
13  0.0028   0.004
14  0.0026   0.004
15  0.0030   0.005
16  0.0032   0.005
17  0.0038   0.006
18  0.0014   0.002
19  0.0016   0.003
20  0.0020   0.004
21  0.0024   0.005
22  0.0028   0.006
23  0.0032   0.007
24  0.0034   0.006
25  0.0036   0.007
26  0.0100   0.010
27  0.0110   0.009
28  0.0120   0.011
29  0.0100   0.006
30  0.0120   0.010
31  0.0130   0.012
32  0.0120   0.011
33  0.0110   0.007
34  0.0110   0.007
--------------------------------------------------
